dynawo/sources/Modeler/DataInterface/PowSyblIIDM/test/resources/dangling_line2.xiidm
<?xml version="1.0" encoding="UTF-8"?>
<iidm:network xmlns:iidm="http://www.powsybl.org/schema/iidm/1_4" id="test" caseDate="2022-01-01T00:00:00.000+01:00" forecastDistance="0" sourceFormat="test">
    <iidm:substation id="S1" country="FR" tso="TSO">
        <iidm:voltageLevel id="VL1" nominalV="380.0" lowVoltageLimit="340.0" highVoltageLimit="420.0" topologyKind="BUS_BREAKER">
            <iidm:busBreakerTopology>
                <iidm:bus id="VL1_BUS1"/>
            </iidm:busBreakerTopology>
            <iidm:danglingLine id="DANGLING_LINE1" r="5.0" x="6.0" g="2.0" b="1.0" p0="3.0" q0="4.0"
                ucteXnodeCode="ucteXnodeCodeTest" p="0.0" q="0.0"
                bus="VL1_BUS1" connectableBus="VL1_BUS1"/>
        </iidm:voltageLevel>
    </iidm:substation>
</iidm:network>
